OPT_V9/4ts_w_storgae_myc_NEW_PARAM/powerflow_results_t3.txt
Pandapower Network Debug Info
==================================================

BUS:
       vm_pu  va_degree      p_mw    q_mvar
0   1.004054   0.228307 -0.007230  0.000977
1   1.003978   0.272961  0.001408  0.001609
2   1.006260   0.314856 -0.001975 -0.000724
3   1.005679   0.249135 -0.001789 -0.000845
4   1.002449   0.222486 -0.001684  0.000438
5   1.000239   0.159282 -0.002952  0.000965
6   0.998672   0.168103  0.001032  0.000981
7   1.002725   0.196071 -0.004967  0.001044
8   1.000821   0.100821 -0.006201  0.003020
9   0.999943   0.002522  0.003799  0.010190
10  0.999934   0.002770  0.002995  0.007490
11  0.999926   0.002978  0.006735  0.012651
12  0.999930   0.006396 -0.000044  0.007044
13  0.999910   0.006862  0.004699  0.009072
14  0.999916   0.006710  0.006175  0.013919
15  0.999971   0.001645  0.000000  0.000000
16  0.999971   0.001646  0.000000  0.000000
17  0.999932   0.006256  0.000000  0.000000
18  0.999932   0.006260  0.000000  0.000000
19  1.000000   0.000000 -0.004016 -0.036389
20  1.000000   0.000005  0.000000  0.000000
21  1.000000   0.000000  0.003878 -0.041519
22  1.000000   0.000006  0.000000  0.000000
--------------------------------------------------

LINE:
    p_from_mw  q_from_mvar   p_to_mw  q_to_mvar         pl_mw       ql_mvar  i_from_ka   i_to_ka      i_ka  vm_from_pu  va_from_degree  vm_to_pu  va_to_degree  loading_percent
0    0.004006     0.032389 -0.004005  -0.032388  1.041813e-06  8.123185e-07   0.001256  0.001256  0.001256    1.000000        0.000005  0.999971      0.001645         0.546155
1   -0.003888     0.037519  0.003892  -0.037516  3.827018e-06  2.983989e-06   0.001452  0.001452  0.001452    1.000000        0.000006  0.999932      0.006256         0.631226
2    0.013530     0.030332 -0.013530  -0.030331  8.530436e-07  6.651322e-07   0.001278  0.001278  0.001278    0.999971        0.001645  0.999943      0.002522         0.555823
3   -0.000044     0.007044  0.000044  -0.007044  1.716332e-08  1.338252e-08   0.000271  0.000271  0.000271    0.999932        0.006256  0.999930      0.006396         0.117895
4    0.010874     0.022992 -0.010874  -0.022992  3.537576e-07  2.758307e-07   0.000979  0.000979  0.000979    0.999932        0.006256  0.999916      0.006710         0.425659
5   -0.009536     0.001057  0.009579  -0.001023  4.305557e-05  3.357114e-05   0.013848  0.013848  0.013848    0.999971        0.001646  1.004054      0.228307         6.021061
6   -0.001913     0.001952  0.001918  -0.001947  5.794133e-06  4.517781e-06   0.003945  0.003945  0.003945    0.999932        0.006260  1.000239      0.159282         1.715008
7   -0.004950     0.001057  0.004967  -0.001044  1.731041e-05  1.349721e-05   0.007306  0.007306  0.007306    0.999932        0.006260  1.002725      0.196071         3.176567
8   -0.007869     0.003471  0.007882  -0.003461  1.271911e-05  9.917301e-06   0.012414  0.012414  0.012414    0.999932        0.006260  1.000821      0.100821         5.397525
9   -0.009730    -0.020141  0.009731   0.020141  1.730530e-07  1.349323e-07   0.000861  0.000861  0.000861    0.999934        0.002770  0.999943      0.002522         0.374355
10  -0.006735    -0.012651  0.006736   0.012651  1.004759e-07  7.834268e-08   0.000552  0.000552  0.000552    0.999926        0.002978  0.999934      0.002770         0.239865
11   0.004699     0.009072 -0.004699  -0.009072  5.106018e-08  3.981246e-08   0.000393  0.000393  0.000393    0.999916        0.006710  0.999910      0.006862         0.170993
12   0.000564    -0.000888 -0.000563   0.000889  6.497623e-07  5.066304e-07   0.001513  0.001513  0.001513    1.003978        0.272961  1.004054      0.228307         0.657666
13   0.001789     0.000845 -0.001786  -0.000843  2.582892e-06  2.013923e-06   0.002839  0.002839  0.002839    1.005679        0.249135  1.004054      0.228307         1.234295
14   0.001975     0.000724 -0.001971  -0.000720  3.953361e-06  3.082500e-06   0.003017  0.003017  0.003017    1.006260        0.314856  1.003978      0.272961         1.311922
15  -0.001680     0.000441  0.001684  -0.000438  3.666160e-06  2.858565e-06   0.002505  0.002505  0.002505    1.000821        0.100821  1.002449      0.222486         1.089321
16  -0.001032    -0.000981  0.001034   0.000983  1.769899e-06  1.380020e-06   0.002058  0.002058  0.002058    0.998672        0.168103  1.000239      0.159282         0.894769
--------------------------------------------------

TRAFO:
    p_hv_mw  q_hv_mvar   p_lv_mw  q_lv_mvar    pl_mw  ql_mvar   i_hv_ka   i_lv_ka  vm_hv_pu  va_hv_degree  vm_lv_pu  va_lv_degree  loading_percent
0 -0.009526   0.002057  0.009536  -0.001057  0.00001    0.001  0.000375  0.013848  0.999971      0.001645  0.999971      0.001646         0.097456
1 -0.014721   0.007479  0.014731  -0.006479  0.00001    0.001  0.000636  0.023230  0.999932      0.006256  0.999932      0.006260         0.165134
2  0.004016   0.036389 -0.004006  -0.032389  0.00001    0.004  0.000302  0.001256  1.000000      0.000000  1.000000      0.000005         0.091525
3 -0.003878   0.041519  0.003888  -0.037519  0.00001    0.004  0.000344  0.001452  1.000000      0.000000  1.000000      0.000006         0.104248
--------------------------------------------------
